Program Version,EnergyPlus, Version 9.5.0-de239b2e5f, YMD=2022.06.24 14:51,
   ************* Beginning Zone Sizing Calculations
   ** Warning ** RunPeriod: object=RUNPERIOD 1, start weekday (MONDAY) does not match the start year (1991), corrected to TUESDAY.
   ** Warning ** Calculated design heating load for zone=WEST ZONE is zero.
   **   ~~~   ** Check Sizing:Zone and ZoneControl:Thermostat inputs.
   ** Warning ** Calculated design heating load for zone=EAST ZONE is zero.
   **   ~~~   ** Check Sizing:Zone and ZoneControl:Thermostat inputs.
   ************* Beginning System Sizing Calculations
   ************* Beginning Plant Sizing Calculations
   ** Warning ** SizeWaterCoil: Coil="WEST ZONE CW COOLING COIL", Cooling Coil has leaving humidity ratio > entering humidity ratio.
   **   ~~~   **     Wair,in =  5.631108E-003 [kgWater/kgDryAir]
   **   ~~~   **     Wair,out = 8.500000E-003 [kgWater/kgDryAir]
   **   ~~~   ** ....coil leaving humidity ratio will be reset to:
   **   ~~~   **     Wair,out = 5.631108E-003 [kgWater/kgDryAir]
   ** Warning ** SizeWaterCoil: Coil="EAST ZONE CW COOLING COIL", Cooling Coil has leaving humidity ratio > entering humidity ratio.
   **   ~~~   **     Wair,in =  5.631108E-003 [kgWater/kgDryAir]
   **   ~~~   **     Wair,out = 9.000000E-003 [kgWater/kgDryAir]
   **   ~~~   ** ....coil leaving humidity ratio will be reset to:
   **   ~~~   **     Wair,out = 5.631108E-003 [kgWater/kgDryAir]
   ************* Testing Individual Branch Integrity
   ************* All Branches passed integrity testing
   ************* Testing Individual Supply Air Path Integrity
   ************* All Supply Air Paths passed integrity testing
   ************* Testing Individual Return Air Path Integrity
   ************* All Return Air Paths passed integrity testing
   ************* No node connection errors were found.
   ************* Beginning Simulation
   ** Warning ** CoolingTower:VariableSpeed "COOLING TOWER" - Tower range temperature is outside model boundaries at 2.26E-002.
   **   ~~~   **  ...Valid range = 1.11 to 22.22. Occurrence info = RUNPERIOD 1, 01/01 00:00 - 00:03
   **   ~~~   **  ...Tower range temperature passed to the model = 2.26135E-002
   **   ~~~   **  ...Range temperatures outside model boundaries may not adversely affect tower performance.
   **   ~~~   **  ...This is not an unexpected occurrence when simulating actual conditions.
   ** Warning ** CalcDoe2DXCoil: Coil:Cooling:DX:SingleSpeed "WEST DX COOLING COIL" - Full load outlet air dry-bulb temperature < 2C. This indicates the possibility of coil frost/freeze. Outlet temperature = -3.76 C.
   **   ~~~   **  ...Occurrence info = RUNPERIOD 1, 01/01 17:15 - 17:22
   **   ~~~   ** ... Possible reasons for low outlet air dry-bulb temperatures are: This DX coil
   **   ~~~   **    1) may have a low inlet air dry-bulb temperature. Inlet air temperature = 15.494 C.
   **   ~~~   **    2) may have a low air flow rate per watt of cooling capacity. Check inputs.
   **   ~~~   **    3) is used as part of a HX assisted cooling coil which uses a high sensible effectiveness. Check inputs.
   ** Warning ** CoolingTower:VariableSpeed "COOLING TOWER" - Tower approach temperature is outside model boundaries at 0.91.
   **   ~~~   **  ...Valid range = 1.11 to 40.00. Occurrence info = RUNPERIOD 1, 01/03 14:30 - 14:45
   **   ~~~   **  ...Tower approach temperature passed to the model = 0.91345
   **   ~~~   **  ...Approach temperatures outside model boundaries may not adversely affect tower performance.
   **   ~~~   **  ...This is not an unexpected occurrence when simulating actual conditions.
   ** Warning ** CalcDoe2DXCoil: Coil:Cooling:DX:SingleSpeed="WEST DX COOLING COIL" - Air volume flow rate per watt of rated total cooling capacity is out of range at 2.253E-005 m3/s/W.
   **   ~~~   **  Environment=RUNPERIOD 1, at Simulation time=01/05 09:01 - 09:02
   **   ~~~   ** Expected range for VolumeFlowPerRatedTotalCapacity=[2.684E-005--6.713E-005]
   **   ~~~   ** Possible causes include inconsistent air flow rates in system components,
   **   ~~~   ** or variable air volume [VAV] system using incorrect coil type.
   ** Severe  ** CalcIndirectResearchSpecialEvapCooler: calculate secondary air mass flow failed for Indirect Evaporative Cooler Research Special = WEST DATA CENTER IEC
   **   ~~~   **  Environment=RUNPERIOD 1, at Simulation time=01/06 22:30 - 22:45
   **   ~~~   **   Iteration limit [500] exceeded in calculating secondary air mass flow rate
   **   ~~~   **   Simulation continues
   ** Severe  ** CalcIndirectResearchSpecialEvapCooler: calculate secondary air mass flow failed for Indirect Evaporative Cooler Research Special = EAST DATA CENTER IEC
   **   ~~~   **  Environment=RUNPERIOD 1, at Simulation time=01/11 12:30 - 12:45
   **   ~~~   **   Iteration limit [500] exceeded in calculating secondary air mass flow rate
   **   ~~~   **   Simulation continues
   ** Warning ** Temperature out of range [-100. to 200.] (PsyPsatFnTemp)
   **   ~~~   **  Routine=PsyTwbFnTdbWPb, Environment=RUNPERIOD 1, at Simulation time=12/05 00:15 - 00:30
   **   ~~~   **  Input Temperature=-335.71
   ** Severe  ** ExternalInterface: Received end of simulation flag at time = 8760.00 hours.
   ************* Simulation Error Summary *************
   ************* There are 1 unused schedules in input.
   ************* Use Output:Diagnostics,DisplayUnusedSchedules; to see them.
   *************
   ************* ===== Recurring Error Summary =====
   ************* The following recurring error messages occurred.
   *************
   *************  ** Warning ** CoolingTower:VariableSpeed "COOLING TOWER" - Tower range temperature is out of range error continues...
   *************  **   ~~~   **   This error occurred 12470 total times;
   *************  **   ~~~   **   during Warmup 0 times;
   *************  **   ~~~   **   during Sizing 0 times.
   *************  **   ~~~   **   Max=1.110975  Min=1.355582E-005
   *************
   *************  ** Warning ** CalcDoe2DXCoil: Coil:Cooling:DX:SingleSpeed="WEST DX COOLING COIL" - Full load outlet temperature indicates a possibility of frost/freeze error continues. Outlet air temperature statistics follow:
   *************  **   ~~~   **   This error occurred 1384 total times;
   *************  **   ~~~   **   during Warmup 0 times;
   *************  **   ~~~   **   during Sizing 0 times.
   *************  **   ~~~   **   Max=1.993519  Min=-14.368549
   *************
   *************  ** Warning ** CoolingTower:VariableSpeed "COOLING TOWER" - Tower approach temperature is out of range error continues...
   *************  **   ~~~   **   This error occurred 70922 total times;
   *************  **   ~~~   **   during Warmup 0 times;
   *************  **   ~~~   **   during Sizing 0 times.
   *************  **   ~~~   **   Max=1.110509  Min=0.
   *************
   *************  ** Warning ** CalcDoe2DXCoil: Coil:Cooling:DX:SingleSpeed="WEST DX COOLING COIL" - Air volume flow rate per watt of rated total cooling capacity is out of range error continues...
   *************  **   ~~~   **   This error occurred 88 total times;
   *************  **   ~~~   **   during Warmup 0 times;
   *************  **   ~~~   **   during Sizing 0 times.
   *************  **   ~~~   **   Max=2.657212E-005  Min=2.121678E-005
   *************
   *************  ** Warning ** Secondary air mass flow Iteration limit exceeded in Indirect Evaporative Cooler Research Special = WEST DATA CENTER IEC
   *************  **   ~~~   **   This error occurred 241 total times;
   *************  **   ~~~   **   during Warmup 0 times;
   *************  **   ~~~   **   during Sizing 0 times.
   *************
   *************  ** Warning ** Secondary air mass flow Iteration limit exceeded in Indirect Evaporative Cooler Research Special = EAST DATA CENTER IEC
   *************  **   ~~~   **   This error occurred 335 total times;
   *************  **   ~~~   **   during Warmup 0 times;
   *************  **   ~~~   **   during Sizing 0 times.
   *************
   *************  ** Warning ** Temperature out of range [-100. to 200.] (PsyPsatFnTemp)
   *************  **   ~~~   **   This error occurred 2 total times;
   *************  **   ~~~   **   during Warmup 0 times;
   *************  **   ~~~   **   during Sizing 0 times.
   *************  **   ~~~   **   Max=-240.40284 C  Min=-335.710648 C
   *************
   ************* EnergyPlus Warmup Error Summary. During Warmup: 0 Warning; 0 Severe Errors.
   ************* EnergyPlus Sizing Error Summary. During Sizing: 3 Warning; 0 Severe Errors.
   ************* EnergyPlus Completed Successfully-- 85449 Warning; 3 Severe Errors; Elapsed Time=00hr 08min 35.96sec
