  0
SECTION
  2
ENTITIES
999
DXF created from EnergyPlus
999
Program Version,EnergyPlus, Version 9.5.0-de239b2e5f, YMD=2022.07.13 12:14
999
Polygon Action,ThickPolyline
999
Color Scheme,Default
999
Text - True North
  0
TEXT
  8
1
  6
Continuous
 62
  3
 10
      -11.00000
 20
        3.00000
 30
        0.10000
 40
 .25
  1
True North
 41
 0.0
  7
MONOTXT
210
0.0
220
0.0
230
1.0
999
Text - Building Title
  0
TEXT
  8
1
  6
Continuous
 62
  3
 10
      -14.00000
 20
       -1.00000
 30
        0.10000
 40
 .4
  1
Building - Simple One Zone (Wireframe DXF)
 41
 0.0
  7
MONOTXT
210
0.0
220
0.0
230
1.0
999
North Arrow Stem
  0
3DFACE
  8
1
 62
  3
 10
      -10.00000
 20
        3.00000
 30
        0.10000
 11
      -10.00000
 21
        3.00000
 31
        0.00000
 12
      -10.00000
 22
        0.00000
 32
        0.00000
 13
      -10.00000
 23
        0.00000
 33
        0.10000
999
North Arrow Head 1
  0
3DFACE
  8
1
 62
  3
 10
      -10.00000
 20
        3.00000
 30
        0.10000
 11
      -10.00000
 21
        3.00000
 31
        0.00000
 12
      -10.50000
 22
        2.13397
 32
        0.00000
 13
      -10.50000
 23
        2.13397
 33
        0.10000
999
North Arrow Head 2
  0
3DFACE
  8
1
 62
  3
 10
      -10.00000
 20
        3.00000
 30
        0.10000
 11
      -10.00000
 21
        3.00000
 31
        0.00000
 12
       -9.50000
 22
        2.13397
 32
        0.00000
 13
       -9.50000
 23
        2.13397
 33
        0.10000
999
North Arrow Side 1
  0
3DFACE
  8
1
 62
  3
 10
      -10.50000
 20
        4.50000
 30
        0.10000
 11
      -10.50000
 21
        4.50000
 31
        0.00000
 12
      -10.50000
 22
        3.50000
 32
        0.00000
 13
      -10.50000
 23
        3.50000
 33
        0.10000
999
North Arrow Side 2
  0
3DFACE
  8
1
 62
  3
 10
      -10.50000
 20
        4.50000
 30
        0.10000
 11
      -10.50000
 21
        4.50000
 31
        0.00000
 12
       -9.50000
 22
        3.50000
 32
        0.00000
 13
       -9.50000
 23
        3.50000
 33
        0.10000
999
North Arrow Side 3
  0
3DFACE
  8
1
 62
  3
 10
       -9.50000
 20
        4.50000
 30
        0.10000
 11
       -9.50000
 21
        4.50000
 31
        0.00000
 12
       -9.50000
 22
        3.50000
 32
        0.00000
 13
       -9.50000
 23
        3.50000
 33
        0.10000
999
Zone Names
999
Zone=1:WEST_ZONE
999
Zone=2:EAST_ZONE
999
Zone=3:WEST_PLENUM
999
Zone=4:EAST_PLENUM
999
WEST ZONE:ZN001:WALL001W
  0
3DFACE
  8
WEST_ZONE
 62
 43
 10
        0.00000
 20
        0.00000
 30
        4.57200
 11
        0.00000
 21
        0.00000
 31
        0.50000
 12
       15.24000
 22
        0.00000
 32
        0.50000
 13
       15.24000
 23
        0.00000
 33
        4.57200
999
WEST ZONE:ZN001:WALL003W
  0
3DFACE
  8
WEST_ZONE
 62
 43
 10
       15.24000
 20
       15.24000
 30
        4.57200
 11
       15.24000
 21
       15.24000
 31
        0.50000
 12
        0.00000
 22
       15.24000
 32
        0.50000
 13
        0.00000
 23
       15.24000
 33
        4.57200
999
WEST ZONE:ZN001:WALL004
  0
3DFACE
  8
WEST_ZONE
 62
 43
 10
        0.00000
 20
       15.24000
 30
        4.57200
 11
        0.00000
 21
       15.24000
 31
        0.50000
 12
        0.00000
 22
        0.00000
 32
        0.50000
 13
        0.00000
 23
        0.00000
 33
        4.57200
999
WEST ZONE:ZN001:PARTITON001
  0
3DFACE
  8
WEST_ZONE
 62
 43
 10
       15.24000
 20
        0.00000
 30
        4.57200
 11
       15.24000
 21
        0.00000
 31
        0.50000
 12
       15.24000
 22
       15.24000
 32
        0.50000
 13
       15.24000
 23
       15.24000
 33
        4.57200
999
WEST ZONE:ZN001:FLR001W
  0
3DFACE
  8
WEST_ZONE
 62
  8
 10
       15.24000
 20
        0.00000
 30
        0.50000
 11
        0.00000
 21
        0.00000
 31
        0.50000
 12
        0.00000
 22
       15.24000
 32
        0.50000
 13
       15.24000
 23
       15.24000
 33
        0.50000
999
WEST ZONE:ZN001:ROOF001W
  0
3DFACE
  8
WEST_ZONE
 62
 15
 10
        0.00000
 20
       15.24000
 30
        4.57200
 11
        0.00000
 21
        0.00000
 31
        4.57200
 12
       15.24000
 22
        0.00000
 32
        4.57200
 13
       15.24000
 23
       15.24000
 33
        4.57200
999
EAST ZONE:ZN001:WALL001E
  0
3DFACE
  8
EAST_ZONE
 62
 43
 10
       15.24000
 20
        0.00000
 30
        4.57200
 11
       15.24000
 21
        0.00000
 31
        0.50000
 12
       32.24000
 22
        0.00000
 32
        0.50000
 13
       32.24000
 23
        0.00000
 33
        4.57200
999
EAST ZONE:ZN001:WALL002
  0
3DFACE
  8
EAST_ZONE
 62
 43
 10
       32.24000
 20
        0.00000
 30
        4.57200
 11
       32.24000
 21
        0.00000
 31
        0.50000
 12
       32.24000
 22
       15.24000
 32
        0.50000
 13
       32.24000
 23
       15.24000
 33
        4.57200
999
EAST ZONE:ZN001:WALL003E
  0
3DFACE
  8
EAST_ZONE
 62
 43
 10
       32.24000
 20
       15.24000
 30
        4.57200
 11
       32.24000
 21
       15.24000
 31
        0.50000
 12
       15.24000
 22
       15.24000
 32
        0.50000
 13
       15.24000
 23
       15.24000
 33
        4.57200
999
EAST ZONE:ZN002:PARTITON001
  0
3DFACE
  8
EAST_ZONE
 62
 43
 10
       15.24000
 20
        0.00000
 30
        4.57200
 11
       15.24000
 21
       15.24000
 31
        4.57200
 12
       15.24000
 22
       15.24000
 32
        0.50000
 13
       15.24000
 23
        0.00000
 33
        0.50000
999
EAST ZONE:ZN001:FLR001E
  0
3DFACE
  8
EAST_ZONE
 62
  8
 10
       32.24000
 20
        0.00000
 30
        0.50000
 11
       15.24000
 21
        0.00000
 31
        0.50000
 12
       15.24000
 22
       15.24000
 32
        0.50000
 13
       32.24000
 23
       15.24000
 33
        0.50000
999
EAST ZONE:ZN001:ROOF001E
  0
3DFACE
  8
EAST_ZONE
 62
 15
 10
       15.24000
 20
       15.24000
 30
        4.57200
 11
       15.24000
 21
        0.00000
 31
        4.57200
 12
       32.24000
 22
        0.00000
 32
        4.57200
 13
       32.24000
 23
       15.24000
 33
        4.57200
999
WEST PLENUM:PZN001:WALL001W
  0
3DFACE
  8
WEST_PLENUM
 62
 43
 10
        0.00000
 20
        0.00000
 30
        0.50000
 11
        0.00000
 21
        0.00000
 31
        0.00000
 12
       15.24000
 22
        0.00000
 32
        0.00000
 13
       15.24000
 23
        0.00000
 33
        0.50000
999
WEST PLENUM:PZN001:WALL003W
  0
3DFACE
  8
WEST_PLENUM
 62
 43
 10
       15.24000
 20
       15.24000
 30
        0.50000
 11
       15.24000
 21
       15.24000
 31
        0.00000
 12
        0.00000
 22
       15.24000
 32
        0.00000
 13
        0.00000
 23
       15.24000
 33
        0.50000
999
WEST PLENUM:PZN001:WALL004
  0
3DFACE
  8
WEST_PLENUM
 62
 43
 10
        0.00000
 20
       15.24000
 30
        0.50000
 11
        0.00000
 21
       15.24000
 31
        0.00000
 12
        0.00000
 22
        0.00000
 32
        0.00000
 13
        0.00000
 23
        0.00000
 33
        0.50000
999
WEST PLENUM:PZN001:PARTITON001
  0
3DFACE
  8
WEST_PLENUM
 62
 43
 10
       15.24000
 20
        0.00000
 30
        0.50000
 11
       15.24000
 21
        0.00000
 31
        0.00000
 12
       15.24000
 22
       15.24000
 32
        0.00000
 13
       15.24000
 23
       15.24000
 33
        0.50000
999
WEST PLENUM:PZN001:FLR001W
  0
3DFACE
  8
WEST_PLENUM
 62
  8
 10
       15.24000
 20
        0.00000
 30
        0.00000
 11
        0.00000
 21
        0.00000
 31
        0.00000
 12
        0.00000
 22
       15.24000
 32
        0.00000
 13
       15.24000
 23
       15.24000
 33
        0.00000
999
WEST PLENUM:PZN001:CEILINGW
  0
3DFACE
  8
WEST_PLENUM
 62
 15
 10
       15.24000
 20
        0.00000
 30
        0.50000
 11
       15.24000
 21
       15.24000
 31
        0.50000
 12
        0.00000
 22
       15.24000
 32
        0.50000
 13
        0.00000
 23
        0.00000
 33
        0.50000
999
EAST PLENUM:PZN001:WALL001E
  0
3DFACE
  8
EAST_PLENUM
 62
 43
 10
       15.24000
 20
        0.00000
 30
        0.50000
 11
       15.24000
 21
        0.00000
 31
        0.00000
 12
       32.24000
 22
        0.00000
 32
        0.00000
 13
       32.24000
 23
        0.00000
 33
        0.50000
999
EAST PLENUM:PZN001:WALL002
  0
3DFACE
  8
EAST_PLENUM
 62
 43
 10
       32.24000
 20
        0.00000
 30
        0.50000
 11
       32.24000
 21
        0.00000
 31
        0.00000
 12
       32.24000
 22
       15.24000
 32
        0.00000
 13
       32.24000
 23
       15.24000
 33
        0.50000
999
EAST PLENUM:PZN001:WALL003E
  0
3DFACE
  8
EAST_PLENUM
 62
 43
 10
       32.24000
 20
       15.24000
 30
        0.50000
 11
       32.24000
 21
       15.24000
 31
        0.00000
 12
       15.24000
 22
       15.24000
 32
        0.00000
 13
       15.24000
 23
       15.24000
 33
        0.50000
999
EAST PLENUM:PZN002:PARTITON001
  0
3DFACE
  8
EAST_PLENUM
 62
 43
 10
       15.24000
 20
        0.00000
 30
        0.50000
 11
       15.24000
 21
       15.24000
 31
        0.50000
 12
       15.24000
 22
       15.24000
 32
        0.00000
 13
       15.24000
 23
        0.00000
 33
        0.00000
999
EAST PLENUM:PZN001:FLR001E
  0
3DFACE
  8
EAST_PLENUM
 62
  8
 10
       32.24000
 20
        0.00000
 30
        0.00000
 11
       15.24000
 21
        0.00000
 31
        0.00000
 12
       15.24000
 22
       15.24000
 32
        0.00000
 13
       32.24000
 23
       15.24000
 33
        0.00000
999
EAST PLENUM:PZN001:CEILINGE
  0
3DFACE
  8
EAST_PLENUM
 62
 15
 10
       32.24000
 20
        0.00000
 30
        0.50000
 11
       32.24000
 21
       15.24000
 31
        0.50000
 12
       15.24000
 22
       15.24000
 32
        0.50000
 13
       15.24000
 23
        0.00000
 33
        0.50000
  0
ENDSEC
  0
EOF
