Program Version,EnergyPlus, Version 9.5.0-de239b2e5f, YMD=2022.05.06 12:48,
   ************* Beginning Zone Sizing Calculations
   ** Warning ** RunPeriod: object=RUNPERIOD 1, start weekday (MONDAY) does not match the start year (1991), corrected to TUESDAY.
   ** Warning ** Calculated design heating load for zone=EAST ZONE is zero.
   **   ~~~   ** Check Sizing:Zone and ZoneControl:Thermostat inputs.
   ** Warning ** Calculated design heating load for zone=WEST ZONE is zero.
   **   ~~~   ** Check Sizing:Zone and ZoneControl:Thermostat inputs.
   ************* Beginning System Sizing Calculations
   ************* Beginning Plant Sizing Calculations
   ** Warning ** SizeWaterCoil: Coil="EAST ZONE CW COOLING COIL", Cooling Coil has leaving humidity ratio > entering humidity ratio.
   **   ~~~   **     Wair,in =  8.407078E-003 [kgWater/kgDryAir]
   **   ~~~   **     Wair,out = 9.000000E-003 [kgWater/kgDryAir]
   **   ~~~   ** ....coil leaving humidity ratio will be reset to:
   **   ~~~   **     Wair,out = 8.407078E-003 [kgWater/kgDryAir]
   ** Warning ** SizeWaterCoil: Coil="WEST ZONE CW COOLING COIL", Cooling Coil has leaving humidity ratio > entering humidity ratio.
   **   ~~~   **     Wair,in =  8.407078E-003 [kgWater/kgDryAir]
   **   ~~~   **     Wair,out = 8.500000E-003 [kgWater/kgDryAir]
   **   ~~~   ** ....coil leaving humidity ratio will be reset to:
   **   ~~~   **     Wair,out = 8.407078E-003 [kgWater/kgDryAir]
   ************* Testing Individual Branch Integrity
   ************* All Branches passed integrity testing
   ************* Testing Individual Supply Air Path Integrity
   ************* All Supply Air Paths passed integrity testing
   ************* Testing Individual Return Air Path Integrity
   ************* All Return Air Paths passed integrity testing
   ************* No node connection errors were found.
   ************* Beginning Simulation
   ** Warning ** CoolingTower:VariableSpeed "COOLING TOWER" - Tower range temperature is outside model boundaries at 1.44E-002.
   **   ~~~   **  ...Valid range = 1.11 to 22.22. Occurrence info = RUNPERIOD 1, 01/01 00:00 - 00:03
   **   ~~~   **  ...Tower range temperature passed to the model = 1.44087E-002
   **   ~~~   **  ...Range temperatures outside model boundaries may not adversely affect tower performance.
   **   ~~~   **  ...This is not an unexpected occurrence when simulating actual conditions.
   ** Warning ** CoolingTower:VariableSpeed "COOLING TOWER" - Tower approach temperature is outside model boundaries at 0.85.
   **   ~~~   **  ...Valid range = 1.11 to 40.00. Occurrence info = RUNPERIOD 1, 01/29 00:30 - 00:45
   **   ~~~   **  ...Tower approach temperature passed to the model = 0.84543
   **   ~~~   **  ...Approach temperatures outside model boundaries may not adversely affect tower performance.
   **   ~~~   **  ...This is not an unexpected occurrence when simulating actual conditions.
   ** Severe  ** CalcIndirectResearchSpecialEvapCooler: calculate secondary air mass flow failed for Indirect Evaporative Cooler Research Special = WEST DATA CENTER IEC
   **   ~~~   **  Environment=RUNPERIOD 1, at Simulation time=04/22 08:35 - 08:40
   **   ~~~   **   Iteration limit [500] exceeded in calculating secondary air mass flow rate
   **   ~~~   **   Simulation continues
   ** Warning ** CalcDoe2DXCoil: Coil:Cooling:DX:SingleSpeed "WEST DX COOLING COIL" - Full load outlet air dry-bulb temperature < 2C. This indicates the possibility of coil frost/freeze. Outlet temperature = 1.15 C.
   **   ~~~   **  ...Occurrence info = RUNPERIOD 1, 04/25 08:00 - 08:02
   **   ~~~   ** ... Possible reasons for low outlet air dry-bulb temperatures are: This DX coil
   **   ~~~   **    1) may have a low inlet air dry-bulb temperature. Inlet air temperature = 12.389 C.
   **   ~~~   **    2) may have a low air flow rate per watt of cooling capacity. Check inputs.
   **   ~~~   **    3) is used as part of a HX assisted cooling coil which uses a high sensible effectiveness. Check inputs.
   ** Severe  ** CalcIndirectResearchSpecialEvapCooler: calculate secondary air mass flow failed for Indirect Evaporative Cooler Research Special = EAST DATA CENTER IEC
   **   ~~~   **  Environment=RUNPERIOD 1, at Simulation time=04/25 13:45 - 14:00
   **   ~~~   **   Iteration limit [500] exceeded in calculating secondary air mass flow rate
   **   ~~~   **   Simulation continues
   ** Severe  ** ExternalInterface: Received end of simulation flag at time = 8760.00 hours.
   ************* Simulation Error Summary *************
   ************* There are 1 unused schedules in input.
   ************* Use Output:Diagnostics,DisplayUnusedSchedules; to see them.
   *************
   ************* ===== Recurring Error Summary =====
   ************* The following recurring error messages occurred.
   *************
   *************  ** Warning ** CoolingTower:VariableSpeed "COOLING TOWER" - Tower range temperature is out of range error continues...
   *************  **   ~~~   **   This error occurred 7689 total times;
   *************  **   ~~~   **   during Warmup 0 times;
   *************  **   ~~~   **   during Sizing 0 times.
   *************  **   ~~~   **   Max=1.111044  Min=3.217631E-005
   *************
   *************  ** Warning ** CoolingTower:VariableSpeed "COOLING TOWER" - Tower approach temperature is out of range error continues...
   *************  **   ~~~   **   This error occurred 10451 total times;
   *************  **   ~~~   **   during Warmup 0 times;
   *************  **   ~~~   **   during Sizing 0 times.
   *************  **   ~~~   **   Max=1.097645  Min=0.
   *************
   *************  ** Warning ** Secondary air mass flow Iteration limit exceeded in Indirect Evaporative Cooler Research Special = WEST DATA CENTER IEC
   *************  **   ~~~   **   This error occurred 178 total times;
   *************  **   ~~~   **   during Warmup 0 times;
   *************  **   ~~~   **   during Sizing 0 times.
   *************
   *************  ** Warning ** CalcDoe2DXCoil: Coil:Cooling:DX:SingleSpeed="WEST DX COOLING COIL" - Full load outlet temperature indicates a possibility of frost/freeze error continues. Outlet air temperature statistics follow:
   *************  **   ~~~   **   This error occurred 4 total times;
   *************  **   ~~~   **   during Warmup 0 times;
   *************  **   ~~~   **   during Sizing 0 times.
   *************  **   ~~~   **   Max=1.147603  Min=1.005926
   *************
   *************  ** Warning ** Secondary air mass flow Iteration limit exceeded in Indirect Evaporative Cooler Research Special = EAST DATA CENTER IEC
   *************  **   ~~~   **   This error occurred 231 total times;
   *************  **   ~~~   **   during Warmup 0 times;
   *************  **   ~~~   **   during Sizing 0 times.
   *************
   ************* EnergyPlus Warmup Error Summary. During Warmup: 0 Warning; 0 Severe Errors.
   ************* EnergyPlus Sizing Error Summary. During Sizing: 3 Warning; 0 Severe Errors.
   ************* EnergyPlus Completed Successfully-- 18560 Warning; 3 Severe Errors; Elapsed Time=00hr 00min 11.28sec
