Program Version,EnergyPlus, Version 9.5.0-de239b2e5f, YMD=2022.05.04 11:52,
   ************* Beginning Zone Sizing Calculations
   ** Warning ** RunPeriod: object=RUNPERIOD 1, start weekday (MONDAY) does not match the start year (1991), corrected to TUESDAY.
   ** Warning ** Calculated design heating load for zone=EAST ZONE is zero.
   **   ~~~   ** Check Sizing:Zone and ZoneControl:Thermostat inputs.
   ** Warning ** Calculated design heating load for zone=WEST ZONE is zero.
   **   ~~~   ** Check Sizing:Zone and ZoneControl:Thermostat inputs.
   ************* Beginning System Sizing Calculations
   ************* Beginning Plant Sizing Calculations
   ************* Testing Individual Branch Integrity
   ************* All Branches passed integrity testing
   ************* Testing Individual Supply Air Path Integrity
   ************* All Supply Air Paths passed integrity testing
   ************* Testing Individual Return Air Path Integrity
   ************* All Return Air Paths passed integrity testing
   ************* No node connection errors were found.
   ************* Beginning Simulation
   ** Warning ** CoolingTower:VariableSpeed "COOLING TOWER" - Tower range temperature is outside model boundaries at 1.47E-002.
   **   ~~~   **  ...Valid range = 1.11 to 22.22. Occurrence info = RUNPERIOD 1, 01/01 06:54 - 06:57
   **   ~~~   **  ...Tower range temperature passed to the model = 1.46901E-002
   **   ~~~   **  ...Range temperatures outside model boundaries may not adversely affect tower performance.
   **   ~~~   **  ...This is not an unexpected occurrence when simulating actual conditions.
   ** Warning ** CoolingTower:VariableSpeed "COOLING TOWER" - Tower approach temperature is outside model boundaries at 0.16.
   **   ~~~   **  ...Valid range = 1.11 to 40.00. Occurrence info = RUNPERIOD 1, 01/03 10:24 - 10:26
   **   ~~~   **  ...Tower approach temperature passed to the model = 0.16057
   **   ~~~   **  ...Approach temperatures outside model boundaries may not adversely affect tower performance.
   **   ~~~   **  ...This is not an unexpected occurrence when simulating actual conditions.
   ** Warning ** CalcDoe2DXCoil: Coil:Cooling:DX:SingleSpeed "WEST DX COOLING COIL" - Full load outlet air dry-bulb temperature < 2C. This indicates the possibility of coil frost/freeze. Outlet temperature = -3.58 C.
   **   ~~~   **  ...Occurrence info = RUNPERIOD 1, 01/17 11:45 - 11:47
   **   ~~~   ** ... Possible reasons for low outlet air dry-bulb temperatures are: This DX coil
   **   ~~~   **    1) may have a low inlet air dry-bulb temperature. Inlet air temperature = 12.176 C.
   **   ~~~   **    2) may have a low air flow rate per watt of cooling capacity. Check inputs.
   **   ~~~   **    3) is used as part of a HX assisted cooling coil which uses a high sensible effectiveness. Check inputs.
   ** Warning ** CalcDoe2DXCoil: Coil:Cooling:DX:SingleSpeed="WEST DX COOLING COIL" - Air volume flow rate per watt of rated total cooling capacity is out of range at 2.093E-005 m3/s/W.
   **   ~~~   **  Environment=RUNPERIOD 1, at Simulation time=01/17 12:01 - 12:02
   **   ~~~   ** Expected range for VolumeFlowPerRatedTotalCapacity=[2.684E-005--6.713E-005]
   **   ~~~   ** Possible causes include inconsistent air flow rates in system components,
   **   ~~~   ** or variable air volume [VAV] system using incorrect coil type.
   ** Severe  ** CalcIndirectResearchSpecialEvapCooler: calculate secondary air mass flow failed for Indirect Evaporative Cooler Research Special = WEST DATA CENTER IEC
   **   ~~~   **  Environment=RUNPERIOD 1, at Simulation time=01/17 12:23 - 12:25
   **   ~~~   **   Iteration limit [500] exceeded in calculating secondary air mass flow rate
   **   ~~~   **   Simulation continues
   ** Severe  ** CalcIndirectResearchSpecialEvapCooler: calculate secondary air mass flow failed for Indirect Evaporative Cooler Research Special = EAST DATA CENTER IEC
   **   ~~~   **  Environment=RUNPERIOD 1, at Simulation time=03/01 13:48 - 13:51
   **   ~~~   **   Iteration limit [500] exceeded in calculating secondary air mass flow rate
   **   ~~~   **   Simulation continues
   ** Warning ** CoolingTower:VariableSpeed "COOLING TOWER" - Inlet air wet-bulb temperature is outside model boundaries at 26.69.
   **   ~~~   **  ...Valid range = -34.40 to 26.67. Occurrence info = RUNPERIOD 1, 07/07 01:45 - 01:50
   **   ~~~   **  ...Inlet air wet-bulb temperature passed to the model = 26.666700
   **   ~~~   **  ...Wet-bulb temperatures outside model boundaries may not adversely affect tower performance.
   ** Warning ** CoolingTower:VariableSpeed "COOLING TOWER" - Inlet air wet-bulb temperature is outside model boundaries at 26.69.
   **   ~~~   **  ...Valid range = -34.40 to 26.67. Occurrence info = RUNPERIOD 1, 07/07 01:50 - 01:55
   **   ~~~   **  ...Inlet air wet-bulb temperature passed to the model = 26.666700
   **   ~~~   **  ...Wet-bulb temperatures outside model boundaries may not adversely affect tower performance.
   ** Warning ** CoolingTower:VariableSpeed "COOLING TOWER" - Inlet air wet-bulb temperature is outside model boundaries at 26.69.
   **   ~~~   **  ...Valid range = -34.40 to 26.67. Occurrence info = RUNPERIOD 1, 07/07 01:55 - 02:00
   **   ~~~   **  ...Inlet air wet-bulb temperature passed to the model = 26.666700
   **   ~~~   **  ...Wet-bulb temperatures outside model boundaries may not adversely affect tower performance.
   ** Warning ** CoolingTower:VariableSpeed "COOLING TOWER" - Inlet air wet-bulb temperature is outside model boundaries at 26.69.
   **   ~~~   **  ...Valid range = -34.40 to 26.67. Occurrence info = RUNPERIOD 1, 07/19 20:30 - 20:32
   **   ~~~   **  ...Inlet air wet-bulb temperature passed to the model = 26.666700
   **   ~~~   **  ...Wet-bulb temperatures outside model boundaries may not adversely affect tower performance.
   ** Warning ** CoolingTower:VariableSpeed "COOLING TOWER" - Inlet air wet-bulb temperature is outside model boundaries at 26.69.
   **   ~~~   **  ...Valid range = -34.40 to 26.67. Occurrence info = RUNPERIOD 1, 07/19 20:32 - 20:34
   **   ~~~   **  ...Inlet air wet-bulb temperature passed to the model = 26.666700
   **   ~~~   **  ...Wet-bulb temperatures outside model boundaries may not adversely affect tower performance.
   ** Severe  ** ExternalInterface: Received end of simulation flag at time = 8760.00 hours.
   ************* Simulation Error Summary *************
   ************* There are 1 unused schedules in input.
   ************* Use Output:Diagnostics,DisplayUnusedSchedules; to see them.
   *************
   ************* ===== Recurring Error Summary =====
   ************* The following recurring error messages occurred.
   *************
   *************  ** Warning ** CoolingTower:VariableSpeed "COOLING TOWER" - Tower range temperature is out of range error continues...
   *************  **   ~~~   **   This error occurred 43669 total times;
   *************  **   ~~~   **   during Warmup 0 times;
   *************  **   ~~~   **   during Sizing 0 times.
   *************  **   ~~~   **   Max=1.111099  Min=1.192383E-005
   *************
   *************  ** Warning ** CoolingTower:VariableSpeed "COOLING TOWER" - Tower approach temperature is out of range error continues...
   *************  **   ~~~   **   This error occurred 128542 total times;
   *************  **   ~~~   **   during Warmup 0 times;
   *************  **   ~~~   **   during Sizing 0 times.
   *************  **   ~~~   **   Max=1.11015  Min=0.
   *************
   *************  ** Warning ** CalcDoe2DXCoil: Coil:Cooling:DX:SingleSpeed="WEST DX COOLING COIL" - Full load outlet temperature indicates a possibility of frost/freeze error continues. Outlet air temperature statistics follow:
   *************  **   ~~~   **   This error occurred 9473 total times;
   *************  **   ~~~   **   during Warmup 0 times;
   *************  **   ~~~   **   during Sizing 0 times.
   *************  **   ~~~   **   Max=1.999788  Min=-14.467891
   *************
   *************  ** Warning ** CalcDoe2DXCoil: Coil:Cooling:DX:SingleSpeed="WEST DX COOLING COIL" - Air volume flow rate per watt of rated total cooling capacity is out of range error continues...
   *************  **   ~~~   **   This error occurred 20756 total times;
   *************  **   ~~~   **   during Warmup 0 times;
   *************  **   ~~~   **   during Sizing 0 times.
   *************  **   ~~~   **   Max=2.683946E-005  Min=1.602895E-005
   *************
   *************  ** Warning ** Secondary air mass flow Iteration limit exceeded in Indirect Evaporative Cooler Research Special = WEST DATA CENTER IEC
   *************  **   ~~~   **   This error occurred 687 total times;
   *************  **   ~~~   **   during Warmup 0 times;
   *************  **   ~~~   **   during Sizing 0 times.
   *************
   *************  ** Warning ** Secondary air mass flow Iteration limit exceeded in Indirect Evaporative Cooler Research Special = EAST DATA CENTER IEC
   *************  **   ~~~   **   This error occurred 833 total times;
   *************  **   ~~~   **   during Warmup 0 times;
   *************  **   ~~~   **   during Sizing 0 times.
   *************
   *************  ** Warning ** CoolingTower:VariableSpeed "COOLING TOWER" - Inlet air wet-bulb temperature is out of range error continues...
   *************  **   ~~~   **   This error occurred 135 total times;
   *************  **   ~~~   **   during Warmup 0 times;
   *************  **   ~~~   **   during Sizing 0 times.
   *************  **   ~~~   **   Max=27.224319  Min=26.668472
   *************
   ************* EnergyPlus Warmup Error Summary. During Warmup: 0 Warning; 0 Severe Errors.
   ************* EnergyPlus Sizing Error Summary. During Sizing: 3 Warning; 0 Severe Errors.
   ************* EnergyPlus Completed Successfully-- 204105 Warning; 3 Severe Errors; Elapsed Time=00hr 01min 20.76sec
